data_image0
_cell_length_a       20.9913
_cell_length_b       20.9913
_cell_length_c       20.9913
_cell_angle_alpha    90
_cell_angle_beta     90
_cell_angle_gamma    90

_symmetry_space_group_name_H-M    "P 1"
_symmetry_int_tables_number       1

loop_
  _symmetry_equiv_pos_as_xyz
  'x, y, z'

loop_
  _atom_site_label
  _atom_site_occupancy
  _atom_site_fract_x
  _atom_site_fract_y
  _atom_site_fract_z
  _atom_site_thermal_displace_type
  _atom_site_B_iso_or_equiv
  _atom_site_type_symbol
  Zr1      1.0000 0.87898  0.50000  0.50000  Biso   1.000  Zr
  Zr2      1.0000 0.87898  0.00000  0.00000  Biso   1.000  Zr
  Zr3      1.0000 0.37898  0.50000  0.00000  Biso   1.000  Zr
  Zr4      1.0000 0.37898  0.00000  0.50000  Biso   1.000  Zr
  Zr5      1.0000 0.12074  0.50000  0.50000  Biso   1.000  Zr
  Zr6      1.0000 0.12074  0.00000  0.00000  Biso   1.000  Zr
  Zr7      1.0000 0.62074  0.50000  0.00000  Biso   1.000  Zr
  Zr8      1.0000 0.62074  0.00000  0.50000  Biso   1.000  Zr
  Zr9      1.0000 0.49986  0.87912  0.50000  Biso   1.000  Zr
  Zr10     1.0000 0.49986  0.37912  0.00000  Biso   1.000  Zr
  Zr11     1.0000 0.99986  0.87912  0.00000  Biso   1.000  Zr
  Zr12     1.0000 0.99986  0.37912  0.50000  Biso   1.000  Zr
  Zr13     1.0000 0.49986  0.50000  0.87912  Biso   1.000  Zr
  Zr14     1.0000 0.49986  0.00000  0.37912  Biso   1.000  Zr
  Zr15     1.0000 0.99986  0.50000  0.37912  Biso   1.000  Zr
  Zr16     1.0000 0.99986  0.00000  0.87912  Biso   1.000  Zr
  Zr17     1.0000 0.49986  0.12088  0.50000  Biso   1.000  Zr
  Zr18     1.0000 0.49986  0.62088  0.00000  Biso   1.000  Zr
  Zr19     1.0000 0.99986  0.12088  0.00000  Biso   1.000  Zr
  Zr20     1.0000 0.99986  0.62088  0.50000  Biso   1.000  Zr
  Zr21     1.0000 0.49986  0.50000  0.12088  Biso   1.000  Zr
  Zr22     1.0000 0.49986  0.00000  0.62088  Biso   1.000  Zr
  Zr23     1.0000 0.99986  0.50000  0.62088  Biso   1.000  Zr
  Zr24     1.0000 0.99986  0.00000  0.12088  Biso   1.000  Zr
  O1       1.0000 0.55348  0.55362  0.94638  Biso   1.000  O 
  O2       1.0000 0.55348  0.05362  0.44638  Biso   1.000  O 
  O3       1.0000 0.05348  0.55362  0.44638  Biso   1.000  O 
  O4       1.0000 0.05348  0.05362  0.94638  Biso   1.000  O 
  O5       1.0000 0.94624  0.94638  0.94638  Biso   1.000  O 
  O6       1.0000 0.94624  0.44638  0.44638  Biso   1.000  O 
  O7       1.0000 0.44624  0.94638  0.44638  Biso   1.000  O 
  O8       1.0000 0.44624  0.44638  0.94638  Biso   1.000  O 
  O9       1.0000 0.55348  0.94638  0.55362  Biso   1.000  O 
  O10      1.0000 0.55348  0.44638  0.05362  Biso   1.000  O 
  O11      1.0000 0.05348  0.94638  0.05362  Biso   1.000  O 
  O12      1.0000 0.05348  0.44638  0.55362  Biso   1.000  O 
  O13      1.0000 0.94624  0.55362  0.55362  Biso   1.000  O 
  O14      1.0000 0.94624  0.05362  0.05362  Biso   1.000  O 
  O15      1.0000 0.44624  0.55362  0.05362  Biso   1.000  O 
  O16      1.0000 0.44624  0.05362  0.55362  Biso   1.000  O 
  O17      1.0000 0.43634  0.43647  0.06353  Biso   1.000  O 
  O18      1.0000 0.43634  0.93647  0.56353  Biso   1.000  O 
  O19      1.0000 0.93634  0.43647  0.56353  Biso   1.000  O 
  O20      1.0000 0.93634  0.93647  0.06353  Biso   1.000  O 
  O21      1.0000 0.06339  0.06353  0.06353  Biso   1.000  O 
  O22      1.0000 0.06339  0.56353  0.56353  Biso   1.000  O 
  O23      1.0000 0.56339  0.06353  0.56353  Biso   1.000  O 
  O24      1.0000 0.56339  0.56353  0.06353  Biso   1.000  O 
  O25      1.0000 0.43634  0.06353  0.43647  Biso   1.000  O 
  O26      1.0000 0.43634  0.56353  0.93647  Biso   1.000  O 
  O27      1.0000 0.93634  0.06353  0.93647  Biso   1.000  O 
  O28      1.0000 0.93634  0.56353  0.43647  Biso   1.000  O 
  O29      1.0000 0.06339  0.43647  0.43647  Biso   1.000  O 
  O30      1.0000 0.06339  0.93647  0.93647  Biso   1.000  O 
  O31      1.0000 0.56339  0.43647  0.93647  Biso   1.000  O 
  O32      1.0000 0.56339  0.93647  0.43647  Biso   1.000  O 
  O33      1.0000 0.40557  0.83061  0.50054  Biso   1.000  O 
  O34      1.0000 0.40557  0.33061  0.00054  Biso   1.000  O 
  O35      1.0000 0.90557  0.83061  0.00054  Biso   1.000  O 
  O36      1.0000 0.90557  0.33061  0.50054  Biso   1.000  O 
  O37      1.0000 0.59415  0.16939  0.50054  Biso   1.000  O 
  O38      1.0000 0.59415  0.66939  0.00054  Biso   1.000  O 
  O39      1.0000 0.09415  0.16939  0.00054  Biso   1.000  O 
  O40      1.0000 0.09415  0.66939  0.50054  Biso   1.000  O 
  O41      1.0000 0.40557  0.16939  0.49946  Biso   1.000  O 
  O42      1.0000 0.40557  0.66939  0.99946  Biso   1.000  O 
  O43      1.0000 0.90557  0.16939  0.99946  Biso   1.000  O 
  O44      1.0000 0.90557  0.66939  0.49946  Biso   1.000  O 
  O45      1.0000 0.59415  0.83061  0.49946  Biso   1.000  O 
  O46      1.0000 0.59415  0.33061  0.99946  Biso   1.000  O 
  O47      1.0000 0.09415  0.83061  0.99946  Biso   1.000  O 
  O48      1.0000 0.09415  0.33061  0.49946  Biso   1.000  O 
  O49      1.0000 0.50040  0.40571  0.83061  Biso   1.000  O 
  O50      1.0000 0.50040  0.90571  0.33061  Biso   1.000  O 
  O51      1.0000 0.00040  0.40571  0.33061  Biso   1.000  O 
  O52      1.0000 0.00040  0.90571  0.83061  Biso   1.000  O 
  O53      1.0000 0.83047  0.50054  0.40571  Biso   1.000  O 
  O54      1.0000 0.83047  0.00054  0.90571  Biso   1.000  O 
  O55      1.0000 0.33047  0.50054  0.90571  Biso   1.000  O 
  O56      1.0000 0.33047  0.00054  0.40571  Biso   1.000  O 
  O57      1.0000 0.49932  0.59429  0.83061  Biso   1.000  O 
  O58      1.0000 0.49932  0.09429  0.33061  Biso   1.000  O 
  O59      1.0000 0.99932  0.59429  0.33061  Biso   1.000  O 
  O60      1.0000 0.99932  0.09429  0.83061  Biso   1.000  O 
  O61      1.0000 0.16925  0.50054  0.59429  Biso   1.000  O 
  O62      1.0000 0.16925  0.00054  0.09429  Biso   1.000  O 
  O63      1.0000 0.66925  0.50054  0.09429  Biso   1.000  O 
  O64      1.0000 0.66925  0.00054  0.59429  Biso   1.000  O 
  O65      1.0000 0.50040  0.59429  0.16939  Biso   1.000  O 
  O66      1.0000 0.50040  0.09429  0.66939  Biso   1.000  O 
  O67      1.0000 0.00040  0.59429  0.66939  Biso   1.000  O 
  O68      1.0000 0.00040  0.09429  0.16939  Biso   1.000  O 
  O69      1.0000 0.16925  0.49946  0.40571  Biso   1.000  O 
  O70      1.0000 0.16925  0.99946  0.90571  Biso   1.000  O 
  O71      1.0000 0.66925  0.49946  0.90571  Biso   1.000  O 
  O72      1.0000 0.66925  0.99946  0.40571  Biso   1.000  O 
  O73      1.0000 0.49932  0.40571  0.16939  Biso   1.000  O 
  O74      1.0000 0.49932  0.90571  0.66939  Biso   1.000  O 
  O75      1.0000 0.99932  0.40571  0.66939  Biso   1.000  O 
  O76      1.0000 0.99932  0.90571  0.16939  Biso   1.000  O 
  O77      1.0000 0.83047  0.49946  0.59429  Biso   1.000  O 
  O78      1.0000 0.83047  0.99946  0.09429  Biso   1.000  O 
  O79      1.0000 0.33047  0.49946  0.09429  Biso   1.000  O 
  O80      1.0000 0.33047  0.99946  0.59429  Biso   1.000  O 
  O81      1.0000 0.83047  0.40571  0.50054  Biso   1.000  O 
  O82      1.0000 0.83047  0.90571  0.00054  Biso   1.000  O 
  O83      1.0000 0.33047  0.40571  0.00054  Biso   1.000  O 
  O84      1.0000 0.33047  0.90571  0.50054  Biso   1.000  O 
  O85      1.0000 0.16925  0.59429  0.50054  Biso   1.000  O 
  O86      1.0000 0.16925  0.09429  0.00054  Biso   1.000  O 
  O87      1.0000 0.66925  0.59429  0.00054  Biso   1.000  O 
  O88      1.0000 0.66925  0.09429  0.50054  Biso   1.000  O 
  O89      1.0000 0.16925  0.40571  0.49946  Biso   1.000  O 
  O90      1.0000 0.16925  0.90571  0.99946  Biso   1.000  O 
  O91      1.0000 0.66925  0.40571  0.99946  Biso   1.000  O 
  O92      1.0000 0.66925  0.90571  0.49946  Biso   1.000  O 
  O93      1.0000 0.83047  0.59429  0.49946  Biso   1.000  O 
  O94      1.0000 0.83047  0.09429  0.99946  Biso   1.000  O 
  O95      1.0000 0.33047  0.59429  0.99946  Biso   1.000  O 
  O96      1.0000 0.33047  0.09429  0.49946  Biso   1.000  O 
  O97      1.0000 0.40557  0.50054  0.83061  Biso   1.000  O 
  O98      1.0000 0.40557  0.00054  0.33061  Biso   1.000  O 
  O99      1.0000 0.90557  0.50054  0.33061  Biso   1.000  O 
  O100     1.0000 0.90557  0.00054  0.83061  Biso   1.000  O 
  O101     1.0000 0.50040  0.83061  0.40571  Biso   1.000  O 
  O102     1.0000 0.50040  0.33061  0.90571  Biso   1.000  O 
  O103     1.0000 0.00040  0.83061  0.90571  Biso   1.000  O 
  O104     1.0000 0.00040  0.33061  0.40571  Biso   1.000  O 
  O105     1.0000 0.59415  0.49946  0.83061  Biso   1.000  O 
  O106     1.0000 0.59415  0.99946  0.33061  Biso   1.000  O 
  O107     1.0000 0.09415  0.49946  0.33061  Biso   1.000  O 
  O108     1.0000 0.09415  0.99946  0.83061  Biso   1.000  O 
  O109     1.0000 0.50040  0.16939  0.59429  Biso   1.000  O 
  O110     1.0000 0.50040  0.66939  0.09429  Biso   1.000  O 
  O111     1.0000 0.00040  0.16939  0.09429  Biso   1.000  O 
  O112     1.0000 0.00040  0.66939  0.59429  Biso   1.000  O 
  O113     1.0000 0.59415  0.50054  0.16939  Biso   1.000  O 
  O114     1.0000 0.59415  0.00054  0.66939  Biso   1.000  O 
  O115     1.0000 0.09415  0.50054  0.66939  Biso   1.000  O 
  O116     1.0000 0.09415  0.00054  0.16939  Biso   1.000  O 
  O117     1.0000 0.49932  0.16939  0.40571  Biso   1.000  O 
  O118     1.0000 0.49932  0.66939  0.90571  Biso   1.000  O 
  O119     1.0000 0.99932  0.16939  0.90571  Biso   1.000  O 
  O120     1.0000 0.99932  0.66939  0.40571  Biso   1.000  O 
  O121     1.0000 0.40557  0.49946  0.16939  Biso   1.000  O 
  O122     1.0000 0.40557  0.99946  0.66939  Biso   1.000  O 
  O123     1.0000 0.90557  0.49946  0.66939  Biso   1.000  O 
  O124     1.0000 0.90557  0.99946  0.16939  Biso   1.000  O 
  O125     1.0000 0.49932  0.83061  0.59429  Biso   1.000  O 
  O126     1.0000 0.49932  0.33061  0.09429  Biso   1.000  O 
  O127     1.0000 0.99932  0.83061  0.09429  Biso   1.000  O 
  O128     1.0000 0.99932  0.33061  0.59429  Biso   1.000  O 
  C1       1.0000 0.15221  0.34765  0.50126  Biso   1.000  C 
  C2       1.0000 0.15221  0.84765  0.00126  Biso   1.000  C 
  C3       1.0000 0.65221  0.34765  0.00126  Biso   1.000  C 
  C4       1.0000 0.65221  0.84765  0.50126  Biso   1.000  C 
  C5       1.0000 0.34752  0.15235  0.50126  Biso   1.000  C 
  C6       1.0000 0.34752  0.65235  0.00126  Biso   1.000  C 
  C7       1.0000 0.84752  0.15235  0.00126  Biso   1.000  C 
  C8       1.0000 0.84752  0.65235  0.50126  Biso   1.000  C 
  C9       1.0000 0.15221  0.15235  0.99874  Biso   1.000  C 
  C10      1.0000 0.15221  0.65235  0.49874  Biso   1.000  C 
  C11      1.0000 0.65221  0.15235  0.49874  Biso   1.000  C 
  C12      1.0000 0.65221  0.65235  0.99874  Biso   1.000  C 
  C13      1.0000 0.34752  0.34765  0.99874  Biso   1.000  C 
  C14      1.0000 0.34752  0.84765  0.49874  Biso   1.000  C 
  C15      1.0000 0.84752  0.34765  0.49874  Biso   1.000  C 
  C16      1.0000 0.84752  0.84765  0.99874  Biso   1.000  C 
  C17      1.0000 0.50112  0.15235  0.34765  Biso   1.000  C 
  C18      1.0000 0.50112  0.65235  0.84765  Biso   1.000  C 
  C19      1.0000 0.00112  0.15235  0.84765  Biso   1.000  C 
  C20      1.0000 0.00112  0.65235  0.34765  Biso   1.000  C 
  C21      1.0000 0.34752  0.50126  0.15235  Biso   1.000  C 
  C22      1.0000 0.34752  0.00126  0.65235  Biso   1.000  C 
  C23      1.0000 0.84752  0.50126  0.65235  Biso   1.000  C 
  C24      1.0000 0.84752  0.00126  0.15235  Biso   1.000  C 
  C25      1.0000 0.99861  0.34765  0.34765  Biso   1.000  C 
  C26      1.0000 0.99861  0.84765  0.84765  Biso   1.000  C 
  C27      1.0000 0.49861  0.34765  0.84765  Biso   1.000  C 
  C28      1.0000 0.49861  0.84765  0.34765  Biso   1.000  C 
  C29      1.0000 0.15221  0.50126  0.34765  Biso   1.000  C 
  C30      1.0000 0.15221  0.00126  0.84765  Biso   1.000  C 
  C31      1.0000 0.65221  0.50126  0.84765  Biso   1.000  C 
  C32      1.0000 0.65221  0.00126  0.34765  Biso   1.000  C 
  C33      1.0000 0.50112  0.34765  0.15235  Biso   1.000  C 
  C34      1.0000 0.50112  0.84765  0.65235  Biso   1.000  C 
  C35      1.0000 0.00112  0.34765  0.65235  Biso   1.000  C 
  C36      1.0000 0.00112  0.84765  0.15235  Biso   1.000  C 
  C37      1.0000 0.15221  0.99874  0.15235  Biso   1.000  C 
  C38      1.0000 0.15221  0.49874  0.65235  Biso   1.000  C 
  C39      1.0000 0.65221  0.99874  0.65235  Biso   1.000  C 
  C40      1.0000 0.65221  0.49874  0.15235  Biso   1.000  C 
  C41      1.0000 0.99861  0.15235  0.15235  Biso   1.000  C 
  C42      1.0000 0.99860  0.65235  0.65235  Biso   1.000  C 
  C43      1.0000 0.49861  0.15235  0.65235  Biso   1.000  C 
  C44      1.0000 0.49861  0.65235  0.15235  Biso   1.000  C 
  C45      1.0000 0.34752  0.99874  0.34765  Biso   1.000  C 
  C46      1.0000 0.34752  0.49874  0.84765  Biso   1.000  C 
  C47      1.0000 0.84752  0.99874  0.84765  Biso   1.000  C 
  C48      1.0000 0.84752  0.49874  0.34765  Biso   1.000  C 
  C49      1.0000 0.99725  0.29706  0.29706  Biso   1.000  C 
  C50      1.0000 0.99725  0.79706  0.79706  Biso   1.000  C 
  C51      1.0000 0.49725  0.29706  0.79706  Biso   1.000  C 
  C52      1.0000 0.49725  0.79706  0.29706  Biso   1.000  C 
  C53      1.0000 0.50247  0.20294  0.29706  Biso   1.000  C 
  C54      1.0000 0.50247  0.70294  0.79706  Biso   1.000  C 
  C55      1.0000 0.00247  0.20294  0.79706  Biso   1.000  C 
  C56      1.0000 0.00247  0.70294  0.29706  Biso   1.000  C 
  C57      1.0000 0.99725  0.20294  0.20294  Biso   1.000  C 
  C58      1.0000 0.99725  0.70294  0.70294  Biso   1.000  C 
  C59      1.0000 0.49725  0.20294  0.70294  Biso   1.000  C 
  C60      1.0000 0.49725  0.70294  0.20294  Biso   1.000  C 
  C61      1.0000 0.50247  0.29706  0.20294  Biso   1.000  C 
  C62      1.0000 0.50247  0.79706  0.70294  Biso   1.000  C 
  C63      1.0000 0.00247  0.29706  0.70294  Biso   1.000  C 
  C64      1.0000 0.00247  0.79706  0.20294  Biso   1.000  C 
  C65      1.0000 0.29692  0.99739  0.29706  Biso   1.000  C 
  C66      1.0000 0.29692  0.49739  0.79706  Biso   1.000  C 
  C67      1.0000 0.79692  0.99739  0.79706  Biso   1.000  C 
  C68      1.0000 0.79692  0.49739  0.29706  Biso   1.000  C 
  C69      1.0000 0.29692  0.29706  0.99739  Biso   1.000  C 
  C70      1.0000 0.29692  0.79706  0.49739  Biso   1.000  C 
  C71      1.0000 0.79692  0.29706  0.49739  Biso   1.000  C 
  C72      1.0000 0.79692  0.79706  0.99739  Biso   1.000  C 
  C73      1.0000 0.20281  0.50261  0.29706  Biso   1.000  C 
  C74      1.0000 0.20281  0.00261  0.79706  Biso   1.000  C 
  C75      1.0000 0.70281  0.50261  0.79706  Biso   1.000  C 
  C76      1.0000 0.70281  0.00261  0.29706  Biso   1.000  C 
  C77      1.0000 0.20281  0.29706  0.50261  Biso   1.000  C 
  C78      1.0000 0.20281  0.79706  0.00261  Biso   1.000  C 
  C79      1.0000 0.70281  0.29706  0.00261  Biso   1.000  C 
  C80      1.0000 0.70281  0.79706  0.50261  Biso   1.000  C 
  C81      1.0000 0.29692  0.50261  0.20294  Biso   1.000  C 
  C82      1.0000 0.29692  0.00261  0.70294  Biso   1.000  C 
  C83      1.0000 0.79692  0.50261  0.70294  Biso   1.000  C 
  C84      1.0000 0.79692  0.00261  0.20294  Biso   1.000  C 
  C85      1.0000 0.20281  0.20294  0.99739  Biso   1.000  C 
  C86      1.0000 0.20281  0.70294  0.49739  Biso   1.000  C 
  C87      1.0000 0.70281  0.20294  0.49739  Biso   1.000  C 
  C88      1.0000 0.70281  0.70294  0.99739  Biso   1.000  C 
  C89      1.0000 0.20281  0.99739  0.20294  Biso   1.000  C 
  C90      1.0000 0.20281  0.49739  0.70294  Biso   1.000  C 
  C91      1.0000 0.70281  0.99739  0.70294  Biso   1.000  C 
  C92      1.0000 0.70281  0.49739  0.20294  Biso   1.000  C 
  C93      1.0000 0.29692  0.20294  0.50261  Biso   1.000  C 
  C94      1.0000 0.29692  0.70294  0.00261  Biso   1.000  C 
  C95      1.0000 0.79692  0.20294  0.00261  Biso   1.000  C 
  C96      1.0000 0.79692  0.70294  0.50261  Biso   1.000  C 
  C97      1.0000 0.31437  0.73233  0.49712  Biso   1.000  C 
  C98      1.0000 0.31437  0.23233  0.99712  Biso   1.000  C 
  C99      1.0000 0.81437  0.73233  0.99712  Biso   1.000  C 
  C100     1.0000 0.81437  0.23233  0.49712  Biso   1.000  C 
  C101     1.0000 0.68535  0.26767  0.49712  Biso   1.000  C 
  C102     1.0000 0.68535  0.76767  0.99712  Biso   1.000  C 
  C103     1.0000 0.18535  0.26767  0.99712  Biso   1.000  C 
  C104     1.0000 0.18535  0.76767  0.49712  Biso   1.000  C 
  C105     1.0000 0.31437  0.26767  0.50288  Biso   1.000  C 
  C106     1.0000 0.31437  0.76767  0.00288  Biso   1.000  C 
  C107     1.0000 0.81437  0.26767  0.00288  Biso   1.000  C 
  C108     1.0000 0.81437  0.76767  0.50288  Biso   1.000  C 
  C109     1.0000 0.68535  0.73233  0.50288  Biso   1.000  C 
  C110     1.0000 0.68535  0.23233  0.00288  Biso   1.000  C 
  C111     1.0000 0.18535  0.73233  0.00288  Biso   1.000  C 
  C112     1.0000 0.18535  0.23233  0.50288  Biso   1.000  C 
  C113     1.0000 0.49699  0.31451  0.73233  Biso   1.000  C 
  C114     1.0000 0.49699  0.81451  0.23233  Biso   1.000  C 
  C115     1.0000 0.99699  0.31451  0.23233  Biso   1.000  C 
  C116     1.0000 0.99698  0.81451  0.73233  Biso   1.000  C 
  C117     1.0000 0.73219  0.49712  0.31451  Biso   1.000  C 
  C118     1.0000 0.73219  0.99712  0.81451  Biso   1.000  C 
  C119     1.0000 0.23219  0.49712  0.81451  Biso   1.000  C 
  C120     1.0000 0.23219  0.99712  0.31451  Biso   1.000  C 
  C121     1.0000 0.50274  0.68549  0.73233  Biso   1.000  C 
  C122     1.0000 0.50274  0.18549  0.23233  Biso   1.000  C 
  C123     1.0000 0.00274  0.68549  0.23233  Biso   1.000  C 
  C124     1.0000 0.00274  0.18549  0.73233  Biso   1.000  C 
  C125     1.0000 0.26753  0.49712  0.68549  Biso   1.000  C 
  C126     1.0000 0.26753  0.99712  0.18549  Biso   1.000  C 
  C127     1.0000 0.76753  0.49712  0.18549  Biso   1.000  C 
  C128     1.0000 0.76753  0.99712  0.68549  Biso   1.000  C 
  C129     1.0000 0.49699  0.68549  0.26767  Biso   1.000  C 
  C130     1.0000 0.49699  0.18549  0.76767  Biso   1.000  C 
  C131     1.0000 0.99698  0.68549  0.76767  Biso   1.000  C 
  C132     1.0000 0.99698  0.18549  0.26767  Biso   1.000  C 
  C133     1.0000 0.26753  0.50288  0.31451  Biso   1.000  C 
  C134     1.0000 0.26753  0.00288  0.81451  Biso   1.000  C 
  C135     1.0000 0.76753  0.50288  0.81451  Biso   1.000  C 
  C136     1.0000 0.76753  0.00288  0.31451  Biso   1.000  C 
  C137     1.0000 0.50274  0.31451  0.26767  Biso   1.000  C 
  C138     1.0000 0.50274  0.81451  0.76767  Biso   1.000  C 
  C139     1.0000 0.00274  0.31451  0.76767  Biso   1.000  C 
  C140     1.0000 0.00274  0.81451  0.26767  Biso   1.000  C 
  C141     1.0000 0.73219  0.50288  0.68549  Biso   1.000  C 
  C142     1.0000 0.73219  0.00288  0.18549  Biso   1.000  C 
  C143     1.0000 0.23219  0.50288  0.18549  Biso   1.000  C 
  C144     1.0000 0.23219  0.00288  0.68549  Biso   1.000  C 
  C145     1.0000 0.73219  0.31451  0.49712  Biso   1.000  C 
  C146     1.0000 0.73219  0.81451  0.99712  Biso   1.000  C 
  C147     1.0000 0.23219  0.31451  0.99712  Biso   1.000  C 
  C148     1.0000 0.23219  0.81451  0.49712  Biso   1.000  C 
  C149     1.0000 0.26753  0.68549  0.49712  Biso   1.000  C 
  C150     1.0000 0.26753  0.18549  0.99712  Biso   1.000  C 
  C151     1.0000 0.76753  0.68549  0.99712  Biso   1.000  C 
  C152     1.0000 0.76753  0.18549  0.49712  Biso   1.000  C 
  C153     1.0000 0.26753  0.31451  0.50288  Biso   1.000  C 
  C154     1.0000 0.26753  0.81451  0.00288  Biso   1.000  C 
  C155     1.0000 0.76753  0.31451  0.00288  Biso   1.000  C 
  C156     1.0000 0.76753  0.81451  0.50288  Biso   1.000  C 
  C157     1.0000 0.73219  0.68549  0.50288  Biso   1.000  C 
  C158     1.0000 0.73219  0.18549  0.00288  Biso   1.000  C 
  C159     1.0000 0.23219  0.68549  0.00288  Biso   1.000  C 
  C160     1.0000 0.23219  0.18549  0.50288  Biso   1.000  C 
  C161     1.0000 0.31437  0.49712  0.73233  Biso   1.000  C 
  C162     1.0000 0.31437  0.99712  0.23233  Biso   1.000  C 
  C163     1.0000 0.81437  0.49712  0.23233  Biso   1.000  C 
  C164     1.0000 0.81437  0.99712  0.73233  Biso   1.000  C 
  C165     1.0000 0.49699  0.73233  0.31451  Biso   1.000  C 
  C166     1.0000 0.49699  0.23233  0.81451  Biso   1.000  C 
  C167     1.0000 0.99698  0.73233  0.81451  Biso   1.000  C 
  C168     1.0000 0.99698  0.23233  0.31451  Biso   1.000  C 
  C169     1.0000 0.68535  0.50288  0.73233  Biso   1.000  C 
  C170     1.0000 0.68535  0.00288  0.23233  Biso   1.000  C 
  C171     1.0000 0.18535  0.50288  0.23233  Biso   1.000  C 
  C172     1.0000 0.18535  0.00288  0.73233  Biso   1.000  C 
  C173     1.0000 0.49699  0.26767  0.68549  Biso   1.000  C 
  C174     1.0000 0.49699  0.76767  0.18549  Biso   1.000  C 
  C175     1.0000 0.99699  0.26767  0.18549  Biso   1.000  C 
  C176     1.0000 0.99698  0.76767  0.68549  Biso   1.000  C 
  C177     1.0000 0.68535  0.49712  0.26767  Biso   1.000  C 
  C178     1.0000 0.68535  0.99712  0.76767  Biso   1.000  C 
  C179     1.0000 0.18535  0.49712  0.76767  Biso   1.000  C 
  C180     1.0000 0.18535  0.99712  0.26767  Biso   1.000  C 
  C181     1.0000 0.50274  0.26767  0.31451  Biso   1.000  C 
  C182     1.0000 0.50274  0.76767  0.81451  Biso   1.000  C 
  C183     1.0000 0.00274  0.26767  0.81451  Biso   1.000  C 
  C184     1.0000 0.00274  0.76767  0.31451  Biso   1.000  C 
  C185     1.0000 0.31437  0.50288  0.26767  Biso   1.000  C 
  C186     1.0000 0.31437  0.00288  0.76767  Biso   1.000  C 
  C187     1.0000 0.81437  0.50288  0.76767  Biso   1.000  C 
  C188     1.0000 0.81437  0.00288  0.26767  Biso   1.000  C 
  C189     1.0000 0.50274  0.73233  0.68549  Biso   1.000  C 
  C190     1.0000 0.50274  0.23233  0.18549  Biso   1.000  C 
  C191     1.0000 0.00274  0.73233  0.18549  Biso   1.000  C 
  C192     1.0000 0.00274  0.23233  0.68549  Biso   1.000  C 
  H1       1.0000 0.40994  0.08992  0.41008  Biso   1.000  H 
  H2       1.0000 0.40994  0.58992  0.91008  Biso   1.000  H 
  H3       1.0000 0.90994  0.08992  0.91008  Biso   1.000  H 
  H4       1.0000 0.90994  0.58992  0.41008  Biso   1.000  H 
  H5       1.0000 0.08979  0.41008  0.41008  Biso   1.000  H 
  H6       1.0000 0.08979  0.91008  0.91008  Biso   1.000  H 
  H7       1.0000 0.58979  0.41008  0.91008  Biso   1.000  H 
  H8       1.0000 0.58979  0.91008  0.41008  Biso   1.000  H 
  H9       1.0000 0.40994  0.41008  0.08992  Biso   1.000  H 
  H10      1.0000 0.40994  0.91008  0.58992  Biso   1.000  H 
  H11      1.0000 0.90994  0.41008  0.58992  Biso   1.000  H 
  H12      1.0000 0.90994  0.91008  0.08992  Biso   1.000  H 
  H13      1.0000 0.08979  0.08992  0.08992  Biso   1.000  H 
  H14      1.0000 0.08979  0.58992  0.58992  Biso   1.000  H 
  H15      1.0000 0.58979  0.08992  0.58992  Biso   1.000  H 
  H16      1.0000 0.58979  0.58992  0.08992  Biso   1.000  H 
  H17      1.0000 0.36416  0.71889  0.49703  Biso   1.000  H 
  H18      1.0000 0.36416  0.21889  0.99703  Biso   1.000  H 
  H19      1.0000 0.86416  0.71889  0.99703  Biso   1.000  H 
  H20      1.0000 0.86416  0.21889  0.49703  Biso   1.000  H 
  H21      1.0000 0.63556  0.28111  0.49703  Biso   1.000  H 
  H22      1.0000 0.63556  0.78111  0.99703  Biso   1.000  H 
  H23      1.0000 0.13556  0.28111  0.99703  Biso   1.000  H 
  H24      1.0000 0.13556  0.78111  0.49703  Biso   1.000  H 
  H25      1.0000 0.36416  0.28111  0.50297  Biso   1.000  H 
  H26      1.0000 0.36416  0.78111  0.00297  Biso   1.000  H 
  H27      1.0000 0.86416  0.28111  0.00297  Biso   1.000  H 
  H28      1.0000 0.86416  0.78111  0.50297  Biso   1.000  H 
  H29      1.0000 0.63556  0.71889  0.50297  Biso   1.000  H 
  H30      1.0000 0.63556  0.21889  0.00297  Biso   1.000  H 
  H31      1.0000 0.13556  0.71889  0.00297  Biso   1.000  H 
  H32      1.0000 0.13556  0.21889  0.50297  Biso   1.000  H 
  H33      1.0000 0.49689  0.36430  0.71889  Biso   1.000  H 
  H34      1.0000 0.49689  0.86430  0.21889  Biso   1.000  H 
  H35      1.0000 0.99689  0.36430  0.21889  Biso   1.000  H 
  H36      1.0000 0.99689  0.86430  0.71889  Biso   1.000  H 
  H37      1.0000 0.71875  0.49703  0.36430  Biso   1.000  H 
  H38      1.0000 0.71875  0.99703  0.86430  Biso   1.000  H 
  H39      1.0000 0.21875  0.49703  0.86430  Biso   1.000  H 
  H40      1.0000 0.21875  0.99703  0.36430  Biso   1.000  H 
  H41      1.0000 0.50283  0.63570  0.71889  Biso   1.000  H 
  H42      1.0000 0.50283  0.13570  0.21889  Biso   1.000  H 
  H43      1.0000 0.00283  0.63570  0.21889  Biso   1.000  H 
  H44      1.0000 0.00283  0.13570  0.71889  Biso   1.000  H 
  H45      1.0000 0.28097  0.49703  0.63570  Biso   1.000  H 
  H46      1.0000 0.28097  0.99703  0.13570  Biso   1.000  H 
  H47      1.0000 0.78097  0.49703  0.13570  Biso   1.000  H 
  H48      1.0000 0.78097  0.99703  0.63570  Biso   1.000  H 
  H49      1.0000 0.49689  0.63570  0.28111  Biso   1.000  H 
  H50      1.0000 0.49689  0.13570  0.78111  Biso   1.000  H 
  H51      1.0000 0.99689  0.63570  0.78111  Biso   1.000  H 
  H52      1.0000 0.99689  0.13570  0.28111  Biso   1.000  H 
  H53      1.0000 0.28097  0.50297  0.36430  Biso   1.000  H 
  H54      1.0000 0.28097  0.00297  0.86430  Biso   1.000  H 
  H55      1.0000 0.78097  0.50297  0.86430  Biso   1.000  H 
  H56      1.0000 0.78097  0.00297  0.36430  Biso   1.000  H 
  H57      1.0000 0.50283  0.36430  0.28111  Biso   1.000  H 
  H58      1.0000 0.50283  0.86430  0.78111  Biso   1.000  H 
  H59      1.0000 0.00283  0.36430  0.78111  Biso   1.000  H 
  H60      1.0000 0.00283  0.86430  0.28111  Biso   1.000  H 
  H61      1.0000 0.71875  0.50297  0.63570  Biso   1.000  H 
  H62      1.0000 0.71875  0.00297  0.13570  Biso   1.000  H 
  H63      1.0000 0.21875  0.50297  0.13570  Biso   1.000  H 
  H64      1.0000 0.21875  0.00297  0.63570  Biso   1.000  H 
  H65      1.0000 0.71875  0.36430  0.49703  Biso   1.000  H 
  H66      1.0000 0.71875  0.86430  0.99703  Biso   1.000  H 
  H67      1.0000 0.21875  0.36430  0.99703  Biso   1.000  H 
  H68      1.0000 0.21875  0.86430  0.49703  Biso   1.000  H 
  H69      1.0000 0.28097  0.63570  0.49703  Biso   1.000  H 
  H70      1.0000 0.28097  0.13570  0.99703  Biso   1.000  H 
  H71      1.0000 0.78097  0.63570  0.99703  Biso   1.000  H 
  H72      1.0000 0.78097  0.13570  0.49703  Biso   1.000  H 
  H73      1.0000 0.28097  0.36430  0.50297  Biso   1.000  H 
  H74      1.0000 0.28097  0.86430  0.00297  Biso   1.000  H 
  H75      1.0000 0.78097  0.36430  0.00297  Biso   1.000  H 
  H76      1.0000 0.78097  0.86430  0.50297  Biso   1.000  H 
  H77      1.0000 0.71875  0.63570  0.50297  Biso   1.000  H 
  H78      1.0000 0.71875  0.13570  0.00297  Biso   1.000  H 
  H79      1.0000 0.21875  0.63570  0.00297  Biso   1.000  H 
  H80      1.0000 0.21875  0.13570  0.50297  Biso   1.000  H 
  H81      1.0000 0.36416  0.49703  0.71889  Biso   1.000  H 
  H82      1.0000 0.36416  0.99703  0.21889  Biso   1.000  H 
  H83      1.0000 0.86416  0.49703  0.21889  Biso   1.000  H 
  H84      1.0000 0.86416  0.99703  0.71889  Biso   1.000  H 
  H85      1.0000 0.49689  0.71889  0.36430  Biso   1.000  H 
  H86      1.0000 0.49689  0.21889  0.86430  Biso   1.000  H 
  H87      1.0000 0.99689  0.71889  0.86430  Biso   1.000  H 
  H88      1.0000 0.99689  0.21889  0.36430  Biso   1.000  H 
  H89      1.0000 0.63556  0.50297  0.71889  Biso   1.000  H 
  H90      1.0000 0.63556  0.00297  0.21889  Biso   1.000  H 
  H91      1.0000 0.13556  0.50297  0.21889  Biso   1.000  H 
  H92      1.0000 0.13556  0.00297  0.71889  Biso   1.000  H 
  H93      1.0000 0.49689  0.28111  0.63570  Biso   1.000  H 
  H94      1.0000 0.49689  0.78111  0.13570  Biso   1.000  H 
  H95      1.0000 0.99689  0.28111  0.13570  Biso   1.000  H 
  H96      1.0000 0.99689  0.78111  0.63570  Biso   1.000  H 
  H97      1.0000 0.63556  0.49703  0.28111  Biso   1.000  H 
  H98      1.0000 0.63556  0.99703  0.78111  Biso   1.000  H 
  H99      1.0000 0.13556  0.49703  0.78111  Biso   1.000  H 
  H100     1.0000 0.13556  0.99703  0.28111  Biso   1.000  H 
  H101     1.0000 0.50283  0.28111  0.36430  Biso   1.000  H 
  H102     1.0000 0.50283  0.78111  0.86430  Biso   1.000  H 
  H103     1.0000 0.00283  0.28111  0.86430  Biso   1.000  H 
  H104     1.0000 0.00283  0.78111  0.36430  Biso   1.000  H 
  H105     1.0000 0.36416  0.50297  0.28111  Biso   1.000  H 
  H106     1.0000 0.36416  0.00297  0.78111  Biso   1.000  H 
  H107     1.0000 0.86416  0.50297  0.78111  Biso   1.000  H 
  H108     1.0000 0.86416  0.00297  0.28111  Biso   1.000  H 
  H109     1.0000 0.50283  0.71889  0.63570  Biso   1.000  H 
  H110     1.0000 0.50283  0.21889  0.13570  Biso   1.000  H 
  H111     1.0000 0.00283  0.71889  0.13570  Biso   1.000  H 
  H112     1.0000 0.00283  0.21889  0.63570  Biso   1.000  H 
