data_image0
_cell_length_a       14.67
_cell_length_b       14.67
_cell_length_c       14.67
_cell_angle_alpha    60
_cell_angle_beta     60
_cell_angle_gamma    60

_symmetry_space_group_name_H-M    "P 1"
_symmetry_int_tables_number       1

loop_
  _symmetry_equiv_pos_as_xyz
  'x, y, z'

loop_
  _atom_site_label
  _atom_site_occupancy
  _atom_site_fract_x
  _atom_site_fract_y
  _atom_site_fract_z
  _atom_site_thermal_displace_type
  _atom_site_B_iso_or_equiv
  _atom_site_type_symbol
  O1       1.0000 0.07623  0.92377  0.26423  Biso   1.000  O 
  O2       1.0000 0.26423  0.73577  0.07623  Biso   1.000  O 
  O3       1.0000 0.92377  0.07623  0.73577  Biso   1.000  O 
  O4       1.0000 0.06740  0.79780  0.06740  Biso   1.000  O 
  O5       1.0000 0.73577  0.26423  0.92377  Biso   1.000  O 
  O6       1.0000 0.73577  0.07623  0.26423  Biso   1.000  O 
  O7       1.0000 0.92377  0.26423  0.07623  Biso   1.000  O 
  O8       1.0000 0.26423  0.92377  0.73577  Biso   1.000  O 
  O9       1.0000 0.07623  0.73577  0.92377  Biso   1.000  O 
  O10      1.0000 0.94950  0.94950  0.94950  Biso   1.000  O 
  O11      1.0000 0.94950  0.94950  0.15150  Biso   1.000  O 
  O12      1.0000 0.15150  0.94950  0.94950  Biso   1.000  O 
  O13      1.0000 0.94950  0.15150  0.94950  Biso   1.000  O 
  O14      1.0000 0.07623  0.26423  0.92377  Biso   1.000  O 
  O15      1.0000 0.26423  0.07623  0.73577  Biso   1.000  O 
  O16      1.0000 0.79780  0.06740  0.06740  Biso   1.000  O 
  O17      1.0000 0.06740  0.06740  0.79780  Biso   1.000  O 
  O18      1.0000 0.92377  0.73577  0.07623  Biso   1.000  O 
  O19      1.0000 0.06740  0.06740  0.06740  Biso   1.000  O 
  O20      1.0000 0.73577  0.92377  0.26423  Biso   1.000  O 
  O21      1.0000 0.92377  0.07623  0.26423  Biso   1.000  O 
  O22      1.0000 0.73577  0.26423  0.07623  Biso   1.000  O 
  O23      1.0000 0.07623  0.92377  0.73577  Biso   1.000  O 
  O24      1.0000 0.26423  0.73577  0.92377  Biso   1.000  O 
  O25      1.0000 0.73577  0.92377  0.07623  Biso   1.000  O 
  O26      1.0000 0.07623  0.26423  0.73577  Biso   1.000  O 
  O27      1.0000 0.26423  0.07623  0.92377  Biso   1.000  O 
  O28      1.0000 0.26423  0.92377  0.07623  Biso   1.000  O 
  O29      1.0000 0.07623  0.73577  0.26423  Biso   1.000  O 
  O30      1.0000 0.73577  0.07623  0.92377  Biso   1.000  O 
  O31      1.0000 0.92377  0.26423  0.73577  Biso   1.000  O 
  O32      1.0000 0.92377  0.73577  0.26423  Biso   1.000  O 
  C1       1.0000 0.54754  0.45246  0.08178  Biso   1.000  C 
  C2       1.0000 1.00000  0.40558  0.00000  Biso   1.000  C 
  C3       1.0000 0.40558  0.00000  0.59442  Biso   1.000  C 
  C4       1.0000 1.00000  0.59442  0.00000  Biso   1.000  C 
  C5       1.0000 0.54754  0.91822  0.45246  Biso   1.000  C 
  C6       1.0000 0.59442  0.00000  0.40558  Biso   1.000  C 
  C7       1.0000 1.00000  0.00000  0.40558  Biso   1.000  C 
  C8       1.0000 0.59442  0.40558  0.00000  Biso   1.000  C 
  C9       1.0000 1.00000  0.00000  0.59442  Biso   1.000  C 
  C10      1.0000 0.40558  0.59442  0.00000  Biso   1.000  C 
  C11      1.0000 0.40558  0.00000  0.00000  Biso   1.000  C 
  C12      1.0000 1.00000  0.59442  0.40558  Biso   1.000  C 
  C13      1.0000 0.59442  0.00000  0.00000  Biso   1.000  C 
  C14      1.0000 1.00000  0.40558  0.59442  Biso   1.000  C 
  C15      1.0000 0.91822  0.45246  0.08178  Biso   1.000  C 
  C16      1.0000 0.45246  0.91822  0.54754  Biso   1.000  C 
  C17      1.0000 0.08178  0.54754  0.91822  Biso   1.000  C 
  C18      1.0000 0.45246  0.08178  0.54754  Biso   1.000  C 
  C19      1.0000 0.54754  0.08178  0.45246  Biso   1.000  C 
  C20      1.0000 0.08178  0.91822  0.45246  Biso   1.000  C 
  C21      1.0000 0.54754  0.45246  0.91822  Biso   1.000  C 
  C22      1.0000 0.91822  0.08178  0.54754  Biso   1.000  C 
  C23      1.0000 0.45246  0.08178  0.91822  Biso   1.000  C 
  C24      1.0000 0.91822  0.54754  0.45246  Biso   1.000  C 
  C25      1.0000 0.54754  0.91822  0.08178  Biso   1.000  C 
  C26      1.0000 0.08178  0.54754  0.45246  Biso   1.000  C 
  C27      1.0000 0.54754  0.08178  0.91822  Biso   1.000  C 
  C28      1.0000 0.91822  0.45246  0.54754  Biso   1.000  C 
  C29      1.0000 0.08178  0.91822  0.54754  Biso   1.000  C 
  C30      1.0000 0.08178  0.45246  0.91822  Biso   1.000  C 
  C31      1.0000 0.91822  0.54754  0.08178  Biso   1.000  C 
  C32      1.0000 1.00000  0.30358  0.00000  Biso   1.000  C 
  C33      1.0000 0.30358  0.00000  0.69642  Biso   1.000  C 
  C34      1.0000 1.00000  0.69642  0.00000  Biso   1.000  C 
  C35      1.0000 0.30358  0.69642  0.00000  Biso   1.000  C 
  C36      1.0000 0.30358  0.00000  0.00000  Biso   1.000  C 
  C37      1.0000 0.69642  0.00000  0.30358  Biso   1.000  C 
  C38      1.0000 1.00000  0.69642  0.30358  Biso   1.000  C 
  C39      1.0000 0.69642  0.00000  0.00000  Biso   1.000  C 
  C40      1.0000 1.00000  0.30358  0.69642  Biso   1.000  C 
  C41      1.0000 1.00000  0.00000  0.30358  Biso   1.000  C 
  C42      1.0000 0.45246  0.54754  0.08178  Biso   1.000  C 
  C43      1.0000 0.69642  0.30358  0.00000  Biso   1.000  C 
  C44      1.0000 1.00000  0.00000  0.69642  Biso   1.000  C 
  C45      1.0000 0.08178  0.45246  0.54754  Biso   1.000  C 
  C46      1.0000 0.45246  0.91822  0.08178  Biso   1.000  C 
  C47      1.0000 0.91822  0.08178  0.45246  Biso   1.000  C 
  C48      1.0000 0.45246  0.54754  0.91822  Biso   1.000  C 
  Zr1      1.0000 0.88025  0.11975  0.88025  Biso   1.000  Zr
  Zr2      1.0000 0.11975  0.11975  0.88025  Biso   1.000  Zr
  Zr3      1.0000 0.11975  0.88025  0.88025  Biso   1.000  Zr
  Zr4      1.0000 0.88025  0.88025  0.11975  Biso   1.000  Zr
  Zr5      1.0000 0.88025  0.11975  0.11975  Biso   1.000  Zr
  Zr6      1.0000 0.11975  0.88025  0.11975  Biso   1.000  Zr
  H1       1.0000 0.58000  0.13780  0.42000  Biso   1.000  H 
  H2       1.0000 0.13780  0.86220  0.42000  Biso   1.000  H 
  H3       1.0000 0.58000  0.42000  0.86220  Biso   1.000  H 
  H4       1.0000 0.86220  0.13780  0.58000  Biso   1.000  H 
  H5       1.0000 0.42000  0.58000  0.13780  Biso   1.000  H 
  H6       1.0000 0.42000  0.13780  0.86220  Biso   1.000  H 
  H7       1.0000 0.86220  0.58000  0.42000  Biso   1.000  H 
  H8       1.0000 0.58000  0.86220  0.13780  Biso   1.000  H 
  H9       1.0000 0.13780  0.42000  0.58000  Biso   1.000  H 
  H10      1.0000 0.13780  0.58000  0.42000  Biso   1.000  H 
  H11      1.0000 0.58000  0.13780  0.86220  Biso   1.000  H 
  H12      1.0000 0.86220  0.42000  0.58000  Biso   1.000  H 
  H13      1.0000 0.42000  0.86220  0.13780  Biso   1.000  H 
  H14      1.0000 0.86220  0.13780  0.42000  Biso   1.000  H 
  H15      1.0000 0.42000  0.58000  0.86220  Biso   1.000  H 
  H16      1.0000 0.13780  0.86220  0.58000  Biso   1.000  H 
  H17      1.0000 0.58000  0.42000  0.13780  Biso   1.000  H 
  H18      1.0000 0.58000  0.86220  0.42000  Biso   1.000  H 
  H19      1.0000 0.13780  0.42000  0.86220  Biso   1.000  H 
  H20      1.0000 0.42000  0.13780  0.58000  Biso   1.000  H 
  H21      1.0000 0.86220  0.58000  0.13780  Biso   1.000  H 
  H22      1.0000 0.09514  0.09515  0.71457  Biso   1.000  H 
  H23      1.0000 0.09514  0.71457  0.09515  Biso   1.000  H 
  H24      1.0000 0.71457  0.09515  0.09515  Biso   1.000  H 
  H25      1.0000 0.09514  0.09515  0.09515  Biso   1.000  H 
  H26      1.0000 0.86220  0.42000  0.13780  Biso   1.000  H 
  H27      1.0000 0.42000  0.86220  0.58000  Biso   1.000  H 
  H28      1.0000 0.13780  0.58000  0.86220  Biso   1.000  H 
